!===============================================================================
! PFLOTRAN v5.X
!===============================================================================

! GNU Lesser General Public License v3.0. See file LICENSE for details.

! Copyright 2023, Battelle Memorial Institute
! All rights reserved.
! 1. Battelle Memorial Institute (hereinafter Battelle) hereby grants permission
!    to any person or entity lawfully obtaining a copy of this software and
!    associated documentation files (hereinafter “the Software”) to redistribute
!    and use the Software in source and binary forms, with or without
!    modification.  Such person or entity may use, copy, modify, merge, publish,
!    distribute, sublicense, and/or sell copies of the Software, and may permit
!    others to do so, subject to the following conditions:
!    - Redistributions of source code must retain the above copyright notice,
!      this list of conditions and the following disclaimers.
!    - Redistributions in binary form must reproduce the above copyright notice,
!      this list of conditions and the following disclaimer in the documentation
!      and/or other materials provided with the distribution.
!    - Other than as used herein, neither the name Battelle Memorial Institute
!      or Battelle may be used in any form whatsoever without the express
!      written consent of Battelle.
! 2. THIS SOFTWARE IS PROVIDED BY THE COPYRIGHT HOLDERS AND CONTRIBUTORS "AS IS"
!    AND ANY EXPRESS OR IMPLIED WARRANTIES, INCLUDING, BUT NOT LIMITED TO, THE
!    IMPLIED WARRANTIES OF MERCHANTABILITY AND FITNESS FOR A PARTICULAR PURPOSE
!    ARE DISCLAIMED. IN NO EVENT SHALL BATTELLE OR CONTRIBUTORS BE LIABLE FOR
!    ANY DIRECT, INDIRECT, INCIDENTAL, SPECIAL, EXEMPLARY, OR CONSEQUENTIAL
!    DAMAGES (INCLUDING, BUT NOT LIMITED TO, PROCUREMENT OF SUBSTITUTE GOODS OR
!    SERVICES; LOSS OF USE, DATA, OR PROFITS; OR BUSINESS INTERRUPTION) HOWEVER
!    CAUSED AND ON ANY THEORY OF LIABILITY, WHETHER IN CONTRACT, STRICT
!    LIABILITY, OR TORT (INCLUDING NEGLIGENCE OR OTHERWISE) ARISING IN ANY WAY
!    OUT OF THE USE OF THIS SOFTWARE, EVEN IF ADVISED OF THE POSSIBILITY OF SUCH
!    DAMAGE.

! Disclaimer
! This material was prepared as an account of work sponsored by an agency of the
! United States Government.  Neither the United States Government nor the United
! States Department of Energy, nor Battelle, nor any of their employees, nor any
! jurisdiction or organization that has cooperated in the development of these
! materials, makes any warranty, express or implied, or assumes any legal
! liability or responsibility for the accuracy, completeness, or usefulness or
! any information, apparatus, product, software, or process disclosed, or
! represents that its use would not infringe privately owned rights.

! Reference herein to any specific commercial product, process, or service by
! trade name, trademark, manufacturer, or otherwise does not necessarily
! constitute or imply its endorsement, recommendation, or favoring by the United
! States Government or any agency thereof, or Battelle Memorial Institute. The
! views and opinions of authors expressed herein do not necessarily state or
! reflect those of the United States Government or any agency thereof.

!                   PACIFIC NORTHWEST NATIONAL LABORATORY
!                                operated by
!                                 BATTELLE
!                                 for the
!                    UNITED STATES DEPARTMENT OF ENERGY
!                     under Contract DE-AC05-76RL01830

!===============================================================================
! PFLOTRAN v3.X
!===============================================================================

! Copyright 2020 National Technology & Engineering Solutions of Sandia, LLC
! (NTESS). Under the terms of Contract DE-NA0003525 with NTESS, the U.S.
! Government retains certain rights in this software.

! See file LICENSE for details of the open source GNU LGPL 3.0 license.

!===============================================================================
! PFLOTRAN v2.X LA-CC-09-047
!===============================================================================

! Copyright 2009. Los Alamos National Security, LLC. This material was produced
! under U.S. Government contract DE-AC52-06NA25396 for Los Alamos National
! Laboratory (LANL), which is operated by Los Alamos National Security, LLC for
! the U.S. Department of Energy. The U.S. Government has rights to use,
! reproduce, and distribute this software.  NEITHER THE GOVERNMENT NOR LOS
! ALAMOS NATIONAL SECURITY, LLC MAKES ANY WARRANTY, EXPRESS OR IMPLIED, OR
! ASSUMES ANY LIABILITY FOR THE USE OF THIS SOFTWARE.  If software is modified
! to produce derivative works, such modified software should be clearly marked,
! so as not to confuse it with the version available from LANL.  Additionally,
! this library is free software; you can redistribute it and/or modify it under
! the terms of the GNU Lesser General Public License as published by the Free
! Software Foundation; either version 2.1 of the License, or (at your option)
! any later version. Accordingly, this library is distributed in the hope that
! it will be useful, but WITHOUT ANY WARRANTY; without even the implied
! warranty of MERCHANTABILITY or FITNESS FOR A PARTICULAR PURPOSE. See the GNU
! Lesser General Public License for more details.

