!===============================================================================
! PFLOTRAN v3.X
!===============================================================================

! Copyright 2020 National Technology & Engineering Solutions of Sandia, LLC 
! (NTESS). Under the terms of Contract DE-NA0003525 with NTESS, the U.S. 
! Government retains certain rights in this software.

! See file LICENSE for details of the open source GNU LGPL 3.0 license.

!===============================================================================
! PFLOTRAN v2.X LA-CC-09-047
!===============================================================================

! Copyright 2009. Los Alamos National Security, LLC. This material was produced 
! under U.S. Government contract DE-AC52-06NA25396 for Los Alamos National 
! Laboratory (LANL), which is operated by Los Alamos National Security, LLC for
! the U.S. Department of Energy. The U.S. Government has rights to use, 
! reproduce, and distribute this software.  NEITHER THE GOVERNMENT NOR LOS 
! ALAMOS NATIONAL SECURITY, LLC MAKES ANY WARRANTY, EXPRESS OR IMPLIED, OR 
! ASSUMES ANY LIABILITY FOR THE USE OF THIS SOFTWARE.  If software is modified
! to produce derivative works, such modified software should be clearly marked,
! so as not to confuse it with the version available from LANL.  Additionally,
! this library is free software; you can redistribute it and/or modify it under
! the terms of the GNU Lesser General Public License as published by the Free
! Software Foundation; either version 2.1 of the License, or (at your option)
! any later version. Accordingly, this library is distributed in the hope that
! it will be useful, but WITHOUT ANY WARRANTY; without even the implied 
! warranty of MERCHANTABILITY or FITNESS FOR A PARTICULAR PURPOSE. See the GNU
! Lesser General Public License for more details.

